opendss_networks/LV12_248bus/Groundings.dss
new reactor.tx_busgrounding_B908 phases=1 bus1=B908.4 bus2=B908.0 r=0.3 x=0.0
new reactor.loadbusgrounding_B2613 phases=1 bus1=B2613.4 bus2=B2613.0 r=10.0 x=0.0
new reactor.loadbusgrounding_B524 phases=1 bus1=B524.4 bus2=B524.0 r=10.0 x=0.0
new reactor.loadbusgrounding_B2887 phases=1 bus1=B2887.4 bus2=B2887.0 r=10.0 x=0.0
new reactor.loadbusgrounding_B2605 phases=1 bus1=B2605.4 bus2=B2605.0 r=10.0 x=0.0
new reactor.loadbusgrounding_B2082 phases=1 bus1=B2082.4 bus2=B2082.0 r=10.0 x=0.0
new reactor.loadbusgrounding_B930 phases=1 bus1=B930.4 bus2=B930.0 r=10.0 x=0.0
new reactor.loadbusgrounding_B986 phases=1 bus1=B986.4 bus2=B986.0 r=10.0 x=0.0
new reactor.loadbusgrounding_B1321 phases=1 bus1=B1321.4 bus2=B1321.0 r=10.0 x=0.0
new reactor.loadbusgrounding_B2056 phases=1 bus1=B2056.4 bus2=B2056.0 r=10.0 x=0.0
new reactor.loadbusgrounding_B372 phases=1 bus1=B372.4 bus2=B372.0 r=10.0 x=0.0
new reactor.loadbusgrounding_B693 phases=1 bus1=B693.4 bus2=B693.0 r=10.0 x=0.0
new reactor.loadbusgrounding_B604 phases=1 bus1=B604.4 bus2=B604.0 r=10.0 x=0.0
new reactor.loadbusgrounding_B2994 phases=1 bus1=B2994.4 bus2=B2994.0 r=10.0 x=0.0
new reactor.loadbusgrounding_B1608 phases=1 bus1=B1608.4 bus2=B1608.0 r=10.0 x=0.0
new reactor.loadbusgrounding_B929 phases=1 bus1=B929.4 bus2=B929.0 r=10.0 x=0.0
new reactor.loadbusgrounding_B1649 phases=1 bus1=B1649.4 bus2=B1649.0 r=10.0 x=0.0
new reactor.loadbusgrounding_B518 phases=1 bus1=B518.4 bus2=B518.0 r=10.0 x=0.0
new reactor.loadbusgrounding_B2052 phases=1 bus1=B2052.4 bus2=B2052.0 r=10.0 x=0.0
new reactor.loadbusgrounding_B1411 phases=1 bus1=B1411.4 bus2=B1411.0 r=10.0 x=0.0
new reactor.loadbusgrounding_B1231 phases=1 bus1=B1231.4 bus2=B1231.0 r=10.0 x=0.0
new reactor.loadbusgrounding_B2060 phases=1 bus1=B2060.4 bus2=B2060.0 r=10.0 x=0.0
new reactor.loadbusgrounding_B2939 phases=1 bus1=B2939.4 bus2=B2939.0 r=10.0 x=0.0
new reactor.loadbusgrounding_B2051 phases=1 bus1=B2051.4 bus2=B2051.0 r=10.0 x=0.0
new reactor.loadbusgrounding_B3237 phases=1 bus1=B3237.4 bus2=B3237.0 r=10.0 x=0.0
new reactor.loadbusgrounding_B1597 phases=1 bus1=B1597.4 bus2=B1597.0 r=10.0 x=0.0
new reactor.loadbusgrounding_B3250 phases=1 bus1=B3250.4 bus2=B3250.0 r=10.0 x=0.0
new reactor.loadbusgrounding_B3164 phases=1 bus1=B3164.4 bus2=B3164.0 r=10.0 x=0.0
new reactor.loadbusgrounding_B2461 phases=1 bus1=B2461.4 bus2=B2461.0 r=10.0 x=0.0
new reactor.loadbusgrounding_B2009 phases=1 bus1=B2009.4 bus2=B2009.0 r=10.0 x=0.0
new reactor.loadbusgrounding_B3203 phases=1 bus1=B3203.4 bus2=B3203.0 r=10.0 x=0.0
new reactor.loadbusgrounding_B978 phases=1 bus1=B978.4 bus2=B978.0 r=10.0 x=0.0
new reactor.loadbusgrounding_B2822 phases=1 bus1=B2822.4 bus2=B2822.0 r=10.0 x=0.0
new reactor.loadbusgrounding_B1924 phases=1 bus1=B1924.4 bus2=B1924.0 r=10.0 x=0.0
new reactor.loadbusgrounding_B997 phases=1 bus1=B997.4 bus2=B997.0 r=10.0 x=0.0
new reactor.loadbusgrounding_B1446 phases=1 bus1=B1446.4 bus2=B1446.0 r=10.0 x=0.0
new reactor.loadbusgrounding_B2793 phases=1 bus1=B2793.4 bus2=B2793.0 r=10.0 x=0.0
new reactor.loadbusgrounding_B2971 phases=1 bus1=B2971.4 bus2=B2971.0 r=10.0 x=0.0
new reactor.loadbusgrounding_B1484 phases=1 bus1=B1484.4 bus2=B1484.0 r=10.0 x=0.0
new reactor.loadbusgrounding_B2219 phases=1 bus1=B2219.4 bus2=B2219.0 r=10.0 x=0.0
new reactor.loadbusgrounding_B3384 phases=1 bus1=B3384.4 bus2=B3384.0 r=10.0 x=0.0
new reactor.loadbusgrounding_B3252 phases=1 bus1=B3252.4 bus2=B3252.0 r=10.0 x=0.0
new reactor.loadbusgrounding_B3116 phases=1 bus1=B3116.4 bus2=B3116.0 r=10.0 x=0.0
new reactor.loadbusgrounding_B2067 phases=1 bus1=B2067.4 bus2=B2067.0 r=10.0 x=0.0
new reactor.loadbusgrounding_B2745 phases=1 bus1=B2745.4 bus2=B2745.0 r=10.0 x=0.0
new reactor.loadbusgrounding_B2962 phases=1 bus1=B2962.4 bus2=B2962.0 r=10.0 x=0.0
new reactor.loadbusgrounding_B1083 phases=1 bus1=B1083.4 bus2=B1083.0 r=10.0 x=0.0
new reactor.loadbusgrounding_B1284 phases=1 bus1=B1284.4 bus2=B1284.0 r=10.0 x=0.0
new reactor.loadbusgrounding_B589 phases=1 bus1=B589.4 bus2=B589.0 r=10.0 x=0.0
new reactor.loadbusgrounding_B2559 phases=1 bus1=B2559.4 bus2=B2559.0 r=10.0 x=0.0
new reactor.loadbusgrounding_B2668 phases=1 bus1=B2668.4 bus2=B2668.0 r=10.0 x=0.0
new reactor.loadbusgrounding_B2843 phases=1 bus1=B2843.4 bus2=B2843.0 r=10.0 x=0.0
new reactor.loadbusgrounding_B1166 phases=1 bus1=B1166.4 bus2=B1166.0 r=10.0 x=0.0
new reactor.loadbusgrounding_B767 phases=1 bus1=B767.4 bus2=B767.0 r=10.0 x=0.0
new reactor.loadbusgrounding_B1112 phases=1 bus1=B1112.4 bus2=B1112.0 r=10.0 x=0.0
new reactor.loadbusgrounding_B3357 phases=1 bus1=B3357.4 bus2=B3357.0 r=10.0 x=0.0
new reactor.loadbusgrounding_B1809 phases=1 bus1=B1809.4 bus2=B1809.0 r=10.0 x=0.0
new reactor.loadbusgrounding_B492 phases=1 bus1=B492.4 bus2=B492.0 r=10.0 x=0.0
new reactor.loadbusgrounding_B2286 phases=1 bus1=B2286.4 bus2=B2286.0 r=10.0 x=0.0
new reactor.loadbusgrounding_B2828 phases=1 bus1=B2828.4 bus2=B2828.0 r=10.0 x=0.0
new reactor.loadbusgrounding_B457 phases=1 bus1=B457.4 bus2=B457.0 r=10.0 x=0.0
new reactor.loadbusgrounding_B1963 phases=1 bus1=B1963.4 bus2=B1963.0 r=10.0 x=0.0
new reactor.loadbusgrounding_B1180 phases=1 bus1=B1180.4 bus2=B1180.0 r=10.0 x=0.0
new reactor.loadbusgrounding_B2848 phases=1 bus1=B2848.4 bus2=B2848.0 r=10.0 x=0.0
new reactor.loadbusgrounding_B2976 phases=1 bus1=B2976.4 bus2=B2976.0 r=10.0 x=0.0
new reactor.loadbusgrounding_B1026 phases=1 bus1=B1026.4 bus2=B1026.0 r=10.0 x=0.0
new reactor.loadbusgrounding_B1040 phases=1 bus1=B1040.4 bus2=B1040.0 r=10.0 x=0.0
new reactor.loadbusgrounding_B3134 phases=1 bus1=B3134.4 bus2=B3134.0 r=10.0 x=0.0
new reactor.loadbusgrounding_B547 phases=1 bus1=B547.4 bus2=B547.0 r=10.0 x=0.0
new reactor.loadbusgrounding_B3010 phases=1 bus1=B3010.4 bus2=B3010.0 r=10.0 x=0.0
new reactor.loadbusgrounding_B2375 phases=1 bus1=B2375.4 bus2=B2375.0 r=10.0 x=0.0
new reactor.loadbusgrounding_B1184 phases=1 bus1=B1184.4 bus2=B1184.0 r=10.0 x=0.0
new reactor.loadbusgrounding_B662 phases=1 bus1=B662.4 bus2=B662.0 r=10.0 x=0.0
new reactor.loadbusgrounding_B3215 phases=1 bus1=B3215.4 bus2=B3215.0 r=10.0 x=0.0
new reactor.loadbusgrounding_B3278 phases=1 bus1=B3278.4 bus2=B3278.0 r=10.0 x=0.0
new reactor.loadbusgrounding_B815 phases=1 bus1=B815.4 bus2=B815.0 r=10.0 x=0.0
new reactor.loadbusgrounding_B629 phases=1 bus1=B629.4 bus2=B629.0 r=10.0 x=0.0
new reactor.loadbusgrounding_B428 phases=1 bus1=B428.4 bus2=B428.0 r=10.0 x=0.0
new reactor.loadbusgrounding_B2110 phases=1 bus1=B2110.4 bus2=B2110.0 r=10.0 x=0.0
new reactor.loadbusgrounding_B1313 phases=1 bus1=B1313.4 bus2=B1313.0 r=10.0 x=0.0
new reactor.loadbusgrounding_B571 phases=1 bus1=B571.4 bus2=B571.0 r=10.0 x=0.0
new reactor.loadbusgrounding_B3228 phases=1 bus1=B3228.4 bus2=B3228.0 r=10.0 x=0.0
new reactor.loadbusgrounding_B1507 phases=1 bus1=B1507.4 bus2=B1507.0 r=10.0 x=0.0
new reactor.loadbusgrounding_B1398 phases=1 bus1=B1398.4 bus2=B1398.0 r=10.0 x=0.0
new reactor.loadbusgrounding_B12 phases=1 bus1=B12.4 bus2=B12.0 r=10.0 x=0.0
new reactor.loadbusgrounding_B1035 phases=1 bus1=B1035.4 bus2=B1035.0 r=10.0 x=0.0
new reactor.loadbusgrounding_B216 phases=1 bus1=B216.4 bus2=B216.0 r=10.0 x=0.0
new reactor.loadbusgrounding_B1810 phases=1 bus1=B1810.4 bus2=B1810.0 r=10.0 x=0.0
new reactor.loadbusgrounding_B1204 phases=1 bus1=B1204.4 bus2=B1204.0 r=10.0 x=0.0
new reactor.loadbusgrounding_B421 phases=1 bus1=B421.4 bus2=B421.0 r=10.0 x=0.0
new reactor.loadbusgrounding_B2905 phases=1 bus1=B2905.4 bus2=B2905.0 r=10.0 x=0.0
new reactor.loadbusgrounding_B1706 phases=1 bus1=B1706.4 bus2=B1706.0 r=10.0 x=0.0
new reactor.loadbusgrounding_B2607 phases=1 bus1=B2607.4 bus2=B2607.0 r=10.0 x=0.0
new reactor.loadbusgrounding_B2623 phases=1 bus1=B2623.4 bus2=B2623.0 r=10.0 x=0.0
new reactor.loadbusgrounding_B1964 phases=1 bus1=B1964.4 bus2=B1964.0 r=10.0 x=0.0
new reactor.loadbusgrounding_B3404 phases=1 bus1=B3404.4 bus2=B3404.0 r=10.0 x=0.0
new reactor.loadbusgrounding_B1456 phases=1 bus1=B1456.4 bus2=B1456.0 r=10.0 x=0.0
new reactor.loadbusgrounding_B975 phases=1 bus1=B975.4 bus2=B975.0 r=10.0 x=0.0
new reactor.loadbusgrounding_B1999 phases=1 bus1=B1999.4 bus2=B1999.0 r=10.0 x=0.0
new reactor.loadbusgrounding_B1983 phases=1 bus1=B1983.4 bus2=B1983.0 r=10.0 x=0.0
new reactor.loadbusgrounding_B79 phases=1 bus1=B79.4 bus2=B79.0 r=10.0 x=0.0
new reactor.loadbusgrounding_B562 phases=1 bus1=B562.4 bus2=B562.0 r=10.0 x=0.0
new reactor.loadbusgrounding_B733 phases=1 bus1=B733.4 bus2=B733.0 r=10.0 x=0.0
new reactor.loadbusgrounding_B1737 phases=1 bus1=B1737.4 bus2=B1737.0 r=10.0 x=0.0
new reactor.loadbusgrounding_B295 phases=1 bus1=B295.4 bus2=B295.0 r=10.0 x=0.0
new reactor.loadbusgrounding_B133 phases=1 bus1=B133.4 bus2=B133.0 r=10.0 x=0.0
new reactor.loadbusgrounding_B2716 phases=1 bus1=B2716.4 bus2=B2716.0 r=10.0 x=0.0
new reactor.loadbusgrounding_B1755 phases=1 bus1=B1755.4 bus2=B1755.0 r=10.0 x=0.0
new reactor.loadbusgrounding_B399 phases=1 bus1=B399.4 bus2=B399.0 r=10.0 x=0.0
new reactor.loadbusgrounding_B1019 phases=1 bus1=B1019.4 bus2=B1019.0 r=10.0 x=0.0
new reactor.loadbusgrounding_B2771 phases=1 bus1=B2771.4 bus2=B2771.0 r=10.0 x=0.0
new reactor.loadbusgrounding_B2273 phases=1 bus1=B2273.4 bus2=B2273.0 r=10.0 x=0.0
new reactor.loadbusgrounding_B486 phases=1 bus1=B486.4 bus2=B486.0 r=10.0 x=0.0
new reactor.loadbusgrounding_B474 phases=1 bus1=B474.4 bus2=B474.0 r=10.0 x=0.0
new reactor.loadbusgrounding_B1334 phases=1 bus1=B1334.4 bus2=B1334.0 r=10.0 x=0.0
new reactor.loadbusgrounding_B332 phases=1 bus1=B332.4 bus2=B332.0 r=10.0 x=0.0
new reactor.loadbusgrounding_B243 phases=1 bus1=B243.4 bus2=B243.0 r=10.0 x=0.0
new reactor.loadbusgrounding_B2334 phases=1 bus1=B2334.4 bus2=B2334.0 r=10.0 x=0.0
new reactor.loadbusgrounding_B2332 phases=1 bus1=B2332.4 bus2=B2332.0 r=10.0 x=0.0
new reactor.loadbusgrounding_B2909 phases=1 bus1=B2909.4 bus2=B2909.0 r=10.0 x=0.0
new reactor.loadbusgrounding_B2092 phases=1 bus1=B2092.4 bus2=B2092.0 r=10.0 x=0.0
new reactor.loadbusgrounding_B3162 phases=1 bus1=B3162.4 bus2=B3162.0 r=10.0 x=0.0
